# Example "data.mnc" file
# Lines beginning "#" are comments
# Luke- you changed snapshot_mnc to FALSE
 &MNC_01
# mnc_echo_gvtypes=.FALSE.,
# mnc_use_indir=.FALSE.,
 mnc_use_outdir=.TRUE.,
 mnc_outdir_str='michigan_2007_11_tribs_'
 monitor_mnc=.TRUE.,
 snapshot_mnc=.TRUE.,
 timeave_mnc=.TRUE.,
 pickup_read_mnc=.FALSE.,
 pickup_write_mnc=.FALSE.,
 &
# Note: Some systems use & as the
# namelist terminator. Other systems
# use a / character.
