# Packages
 &PACKAGES
 usePTRACERS=.TRUE.,
 useMNC=.TRUE.,
 useKPP=.TRUE.,
 useLAKEICE=.TRUE.,
 useRIVERS=.TRUE.,
 /
